!B3LYP D4 DEF2-SVP OPT FREQ MBIS
%PAL
NPROCS 12 
END

%Method
WriteJSONPropertyfile True
End

%cpcm SMD TRUE
SMDSOLVENT "WATER"
end


*xyz -1 1
    C   -1.2719460000        0.0242920000        0.0109120000     
    O   -1.7584170000       -0.1658180000       -1.1383150000     
    O   -1.8420680000        0.6375540000        0.9551060000     
    C    0.1118230000       -0.5277140000        0.2775060000     
    C    0.7984380000       -1.2438690000       -0.7033010000     
    C    0.7307080000       -0.3234040000        1.5161980000     
    C    2.0728410000       -1.7467880000       -0.4611180000     
    C    1.9997480000       -0.8162200000        1.7669330000     
    C    2.6778750000       -1.5342830000        0.7711140000     
    H    0.3236930000       -1.4069510000       -1.6645870000     
    H    0.2167340000        0.2315700000        2.2939850000     
    H    2.6106410000       -2.3060330000       -1.2215030000     
    O    2.5891730000       -0.5984600000        2.9860580000     
    H    3.4660410000       -1.0043540000        2.9632220000     
    O    3.9267620000       -1.9795140000        1.1135330000     
    H    4.3196550000       -2.4408150000        0.3629770000     
*