!B3LYP D4 DEF2-SVP OPT FREQ MBIS

%PAL
NPROCS 12 
END

%Method
WriteJSONPropertyfile True
End

%cpcm SMD TRUE
SMDSOLVENT "WATER"
end

*xyz -1   1
    C   -2.9342860000       -0.0000210000       -0.0000290000     
    O   -3.4980180000       -1.1241640000        0.0014510000     
    O   -3.4980380000        1.1241130000       -0.0013430000     
    C   -1.4110770000       -0.0000090000       -0.0000170000     
    C   -0.7017960000       -1.2046730000        0.0021260000     
    C   -0.7018130000        1.2046660000       -0.0021430000     
    C    0.6827570000       -1.2173540000        0.0021950000     
    C    0.6827400000        1.2173660000       -0.0021760000     
    C    1.3557730000        0.0000110000        0.0000190000     
    H    1.2409380000        2.1448510000       -0.0037910000     
    H   -1.2544120000        2.1372820000       -0.0037420000     
    H   -1.2543830000       -2.1372960000        0.0037130000     
    H    1.2409670000       -2.1448320000        0.0038240000     
    N    2.8177720000        0.0000200000        0.0000390000     
    O    3.4015070000        1.0813120000       -0.0012430000     
    O    3.4015190000       -1.0812670000        0.0012640000     
*

