!B3LYP D4 DEF2-SVP OPT FREQ MBIS
%PAL
NPROCS 12 
END

%Method
WriteJSONPropertyfile True
End

%cpcm SMD TRUE
SMDSOLVENT "WATER"
end


*xyz -1 1
    C   -1.2456600000        0.0280480000        0.0477500000     
    O   -1.3127220000        1.2616330000       -0.1726630000     
    O   -2.2042000000       -0.7591860000        0.2681690000     
    C    0.1273360000       -0.6388250000        0.0622860000     
    H    0.2701000000       -1.1340800000        1.0360820000     
    H    0.1404210000       -1.4380910000       -0.6960390000     
    O    1.1753540000        0.2839150000       -0.1790490000     
    C    2.4283620000       -0.3676020000       -0.1608520000     
    H    2.4851110000       -1.1534810000       -0.9274300000     
    H    3.1971520000        0.3796000000       -0.3633660000     
    H    2.6299940000       -0.8289550000        0.8164830000     
**