!B3LYP D4 DEF2-SVP OPT FREQ MBIS
%PAL
NPROCS 12 
END

%Method
WriteJSONPropertyfile True
End

%cpcm SMD TRUE
SMDSOLVENT "WATER"
end

* xyz -1 1
    C    1.5030810000       -0.0322880000        0.0002260000     
    O    1.9803580000       -1.1961400000        0.0000670000     
    O    2.1371230000        1.0572390000        0.0004820000     
    C    0.0200870000        0.0997350000        0.0000740000     
    C   -0.8151720000        1.1789680000       -0.0002780000     
    O   -0.7334020000       -1.0552080000       -0.0008330000     
    C   -2.1465220000        0.6797900000        0.0001930000     
    H   -0.5008600000        2.2118840000       -0.0003080000     
    C   -2.0414180000       -0.6754580000       -0.0000470000     
    H   -3.0643310000        1.2486310000        0.0005540000     
    H   -2.7607920000       -1.4797760000        0.0000170000     
*

