!B3LYP D4 DEF2-SVP OPT FREQ MBIS

%PAL
NPROCS 12 
END

%Method
WriteJSONPropertyfile True
End

%cpcm SMD TRUE
SMDSOLVENT "WATER"
end

*xyz -1   1
    C   -1.1554660000        0.0899730000       -0.0167410000     
    O   -2.2717640000       -0.1731050000       -0.5457020000     
    O   -0.8941540000        1.1105310000        0.6817140000     
    C    0.9946020000       -1.1059720000        0.8279660000     
    C   -0.0438020000       -0.8972790000       -0.2510400000     
    C    1.3719060000       -0.3956190000       -0.4240100000     
    H    0.8665290000       -0.5195370000        1.7317530000     
    H    1.3730670000       -2.1128010000        0.9739860000     
    H   -0.3106880000       -1.7694070000       -0.8409670000     
    H    1.4642780000        0.6835580000       -0.3310210000     
    C    2.2753430000       -1.0521700000       -1.4256820000     
    H    2.1106660000       -0.6647090000       -2.4360440000     
    H    3.3311670000       -0.8920500000       -1.1842190000     
    H    2.1065340000       -2.1326100000       -1.4556960000     
*