!B3LYP D4 DEF2-SVP OPT FREQ MBIS
%PAL
NPROCS 12 
END

%Method
WriteJSONPropertyfile True
End

%cpcm SMD TRUE
SMDSOLVENT "WATER"
end


*xyz -1   1
    C   -1.2577780000        0.0008340000       -0.0000930000     
    O   -1.8120050000        1.1290980000        0.0036690000     
    O   -1.8134180000       -1.1267780000       -0.0043770000     
    C    0.2146610000       -0.0005520000        0.0006010000     
    C    1.4274810000       -0.0030060000        0.0009610000     
    C    2.8734890000       -0.0049270000        0.0000330000     
    H    3.2718820000        0.6366780000        0.7909150000     
    H    3.2793800000       -1.0091190000        0.1491870000     
    H    3.2649490000        0.3714060000       -0.9491630000     
*

