!B3LYP D4 DEF2-SVP OPT FREQ MBIS

%PAL
NPROCS 12 
END

%Method
WriteJSONPropertyfile True
End

%cpcm SMD TRUE
SMDSOLVENT "WATER"
end


*xyz -1   1
    C    2.4815690000       -1.0807740000       -0.0441780000     
    O    2.9836970000       -1.3786700000        1.0604910000     
    O    3.0030090000       -1.1064690000       -1.1796580000     
    C    1.0060320000       -0.7296610000       -0.0149340000     
    C    0.0945310000       -1.7952740000       -0.0497230000     
    C    0.4664240000        0.5631900000        0.0239350000     
    C   -1.2697130000       -1.5873310000       -0.0472310000     
    C   -0.8989230000        0.8082230000        0.0296220000     
    C   -1.7500500000       -0.2788220000       -0.0050740000     
    H   -1.2800740000        1.8192760000        0.0652830000     
    H    0.4797760000       -2.8089490000       -0.0810050000     
    H   -1.9641070000       -2.4171260000       -0.0755150000     
    N   -3.1912050000       -0.0423780000        0.0051500000     
    O   -3.5902340000        1.1179480000        0.0403830000     
    O   -3.9341340000       -1.0196220000       -0.0213540000     
    N    1.3479120000        1.7341530000        0.0662360000     
    O    2.5536720000        1.5447510000        0.1893190000     
    O    0.8396390000        2.8482680000       -0.0219140000     
*

