!B3LYP D4 DEF2-SVP OPT FREQ MBIS

%PAL
NPROCS 12 
END

%Method
WriteJSONPropertyfile True
End

%cpcm SMD TRUE
SMDSOLVENT "WATER"
end


*xyz -1   1
    C   -1.2159300000        0.0443230000       -0.0122370000     
    O   -2.1686640000       -0.0838660000       -0.8330490000     
    O   -1.1804860000        0.8705400000        0.9424740000     
    C    1.0222730000       -1.0545320000        0.8276500000     
    C   -0.0337650000       -0.8692430000       -0.2302000000     
    C    1.3678470000       -0.3071660000       -0.4150680000     
    H    0.8847450000       -0.4635320000        1.7284630000     
    H    1.4307640000       -2.0470290000        0.9827470000     
    H   -0.2565650000       -1.7300650000       -0.8532440000     
    H    1.9592100000       -0.8623700000       -1.1392200000     
    C    1.6491500000        1.1678260000       -0.3920950000     
    H    2.7044540000        1.3611470000       -0.1752500000     
    H    1.4243200000        1.6350460000       -1.3565960000     
    H    1.0528220000        1.6746550000        0.3674660000     
*