!B3LYP D4 DEF2-SVP OPT FREQ MBIS

%PAL
NPROCS 12 
END

%Method
WriteJSONPropertyfile True
End

%cpcm SMD TRUE
SMDSOLVENT "WATER"
end


* xyz -1 1
    C   -1.2548570000        0.0468030000       -0.0053970000     
    O   -1.7329530000       -0.0821410000       -1.1545520000     
    O   -1.8513070000        0.6321740000        0.9645220000     
    C    0.1120790000       -0.5114290000        0.2803080000     
    C    0.8257140000       -1.1785630000       -0.7189330000     
    C    0.7117650000       -0.3767660000        1.5516550000     
    C    2.0909100000       -1.6997970000       -0.4922850000     
    H    0.3531400000       -1.2787660000       -1.6912560000     
    C    1.9889050000       -0.8982250000        1.7844830000     
    C    2.6698660000       -1.5525360000        0.7697510000     
    H    2.6248800000       -2.2137100000       -1.2841120000     
    H    3.6608890000       -1.9511480000        0.9651950000     
    H    2.4277670000       -0.7772380000        2.7697990000     
    O    0.0783500000        0.2526770000        2.5680760000     
    H   -0.7994950000        0.5279110000        2.1628510000     
*
