!B3LYP D4 DEF2-SVP OPT FREQ MBIS
%PAL
NPROCS 12 
END

%Method
WriteJSONPropertyfile True
End

%cpcm SMD TRUE
SMDSOLVENT "WATER"
end

* xyz -1   1
    C    3.6497150000        0.3048610000        0.0406900000     
    O    4.4151930000       -0.6867940000        0.1951530000     
    O    4.0210120000        1.5046940000       -0.0821960000     
    C    2.1631250000        0.0314400000       -0.0001990000     
    C    1.6650450000       -1.2721130000        0.1135690000     
    C    1.2417830000        1.0666880000       -0.1544750000     
    C    0.3068370000       -1.5322840000        0.0684690000     
    C   -0.1283970000        0.8310250000       -0.2005260000     
    C   -0.6012160000       -0.4792040000       -0.0926590000     
    H   -0.8140890000        1.6609650000       -0.3210710000     
    H    2.3679630000       -2.0897330000        0.2375180000     
    H    1.6104720000        2.0841180000       -0.2408940000     
    H   -0.0783280000       -2.5434830000        0.1534610000     
    O   -1.9179770000       -0.8264340000       -0.1356310000     
    C   -2.8758800000        0.2234100000       -0.3225130000     
    H   -2.6458140000        0.7687840000       -1.2476420000     
    H   -2.8076350000        0.9363250000        0.5101650000     
    C   -4.2458120000       -0.4028860000       -0.3908710000     
    H   -4.2668200000       -1.1216690000       -1.2172050000     
    H   -4.4225590000       -0.9742820000        0.5269360000     
    C   -5.3231620000        0.6484560000       -0.5754940000     
    H   -5.1714580000        1.2171210000       -1.4977920000     
    H   -6.3160780000        0.1973120000       -0.6277750000     
    H   -5.3283840000        1.3632070000        0.2527080000     
*

