!B3LYP D4 DEF2-SVP OPT FREQ MBIS
%PAL
NPROCS 12 
END

%Method
WriteJSONPropertyfile True
End

%cpcm SMD TRUE
SMDSOLVENT "WATER"
end

* xyz -1   1
    C    1.8021960000       -0.0000070000        0.0000060000     
    O    2.3752230000       -1.1225850000        0.0000190000     
    O    2.3752290000        1.1225680000        0.0000280000     
    C    0.2832460000       -0.0000030000        0.0000060000     
    C   -0.4313070000        1.2007210000       -0.0000020000     
    C   -0.4313130000       -1.2007230000        0.0000050000     
    C   -1.8216750000        1.2039810000       -0.0000090000     
    H    0.1209270000        2.1350810000       -0.0000030000     
    C   -1.8216830000       -1.2039750000       -0.0000030000     
    H    0.1209140000       -2.1350870000        0.0000100000     
    C   -2.5214320000        0.0000040000       -0.0000100000     
    H   -2.3632510000        2.1452420000       -0.0000160000     
    H   -2.3632620000       -2.1452340000       -0.0000030000     
    H   -3.6070930000        0.0000090000       -0.0000150000     
*

