24
Coordinates from ORCA-job CAS_5438-19-7 E -612.762357643228
  C           3.68433139684490      0.28947577026686      0.06542502046403
  O           4.44208099083419     -0.71117079405525      0.19201924625354
  O           4.06363640443937      1.48994491136842     -0.01689853363224
  C           2.18497731812781      0.02527768507710      0.00643878182883
  C           1.67556342513561     -1.28115427915794      0.10717377096982
  C           1.27228802489095      1.07555371248282     -0.15067244935274
  C           0.30799740775365     -1.52745649557498      0.05142904276883
  C          -0.10592631843148      0.85055420358349     -0.21104782312848
  C          -0.59557196554669     -0.46140194063053     -0.11024306603051
  H          -0.78391460935120      1.69494230278158     -0.33518841554574
  H           2.37536418639350     -2.11022182853965      0.23098457778778
  H           1.65532390352820      2.09527768677088     -0.22786404759950
  H          -0.08968254505109     -2.54226256472528      0.12953073793250
  O          -1.91420622477766     -0.79107721082373     -0.15864775487256
  C          -2.88463280718221      0.23990231504900     -0.34247846794605
  H          -2.68099110557176      0.77996540752064     -1.28493850404440
  H          -2.81538498427889      0.97053821543265      0.48383331906215
  C          -4.25920146680240     -0.40264759145916     -0.37723817879246
  H          -4.28172395128923     -1.14519189435455     -1.19343560429980
  H          -4.41300791867601     -0.95867798530704      0.56367152385480
  C          -5.36696917612019      0.62981060642426     -0.56966965758131
  H          -5.24211583172554      1.18164289559244     -1.51656299120811
  H          -6.35724742474099      0.14840631883285     -0.59238804065330
  H          -5.37345072840281      1.36949455344513      0.24849351376493
