--Link1--
%chk=CAS_118-90-1.chk
# opt nosymm freq M06L/6-311G(d,p) SCRF=(SMD,solvent=water) pop=nbo IOP(6/80=1)

CAS_118-90-1

-1   1
    C   -1.2762890000        0.0202830000       -0.0780860000     
    O   -1.5003090000        0.2611610000       -1.2960100000     
    O   -2.1129680000        0.1380750000        0.8569650000     
    C    0.1112230000       -0.4892410000        0.2738140000     
    C    0.8070590000       -1.2036470000       -0.7074370000     
    C    0.7173140000       -0.2938170000        1.5330680000     
    C    2.0585670000       -1.7546090000       -0.4686410000     
    C    1.9908320000       -0.8328810000        1.7488570000     
    C    2.6559620000       -1.5660770000        0.7733810000     
    H    0.3351480000       -1.3253820000       -1.6771830000     
    H    2.5661250000       -2.3192740000       -1.2445300000     
    H    3.6387950000       -1.9783720000        0.9808160000     
    H    2.4673770000       -0.6661080000        2.7118780000     
    C    0.0815680000        0.4896710000        2.6425070000     
    H   -0.3608210000        1.4226470000        2.2871800000     
    H   -0.7307350000       -0.0668570000        3.1176700000     
    H    0.8215700000        0.7256020000        3.4111640000     


