!B3LYP D4 DEF2-SVP OPT FREQ MBIS
%PAL
NPROCS 12 
END

%Method
WriteJSONPropertyfile True
End

%cpcm SMD TRUE
SMDSOLVENT "WATER"
end

* xyz -1   1
    C    1.8263320000        0.0798500000       -0.0023960000     
    O    2.8604450000       -0.6384980000        0.0925080000     
    O    1.8151820000        1.3371200000       -0.1082050000     
    C    0.4851030000       -0.6583550000        0.0050650000     
    H    0.4775180000       -1.3297470000       -0.8645080000     
    H    0.4781660000       -1.3289100000        0.8741720000     
    C   -0.7531340000        0.2167710000        0.0009060000     
    H   -0.7251970000        0.8829280000       -0.8709240000     
    H   -0.7319940000        0.8825140000        0.8739300000     
    C   -2.0559510000       -0.5679760000       -0.0032340000     
    H   -2.0800510000       -1.2254500000       -0.8822150000     
    H   -2.0794820000       -1.2380530000        0.8661890000     
    C   -3.2839590000        0.3232880000        0.0040860000     
    H   -3.3004910000        0.9838980000       -0.8687990000     
    H   -4.2119850000       -0.2548060000       -0.0052870000     
    H   -3.3054220000        0.9623540000        0.8927710000     
*

