27
Coordinates from ORCA-job CAS_1498-96-0 E -652.022367415739
  C          -1.48500553486685     -0.35309739850592      0.05160165912032
  O          -1.78770783941391     -0.01406015407112     -1.12518571425865
  O          -2.30067574230847     -0.51125434378400      1.00133779228643
  C          -0.01002456565258     -0.59073570903686      0.35300731613356
  C           0.97055704519375     -0.39056573226046     -0.62670485909158
  C           0.40875071785753     -1.01759631623324      1.62541964775434
  C           2.32740309357140     -0.60101655225737     -0.36498867784105
  C           1.75273349203103     -1.23765277002081      1.90616373955755
  C           2.72521971620629     -1.02918496698745      0.91149996884604
  H           0.65944867785851     -0.05982472455100     -1.61994264006697
  H          -0.34349345296498     -1.17721644898657      2.40054409815601
  H           3.06005907738406     -0.43049362007499     -1.15376458395066
  H           2.07894376016911     -1.57222905806429      2.89399556783760
  O           4.01538658741039     -1.26474406424689      1.27256712483987
  C           5.05668316331361     -1.06440253977895      0.31560186000261
  H           5.04118175742269     -0.01777105738096     -0.03824931982902
  H           4.88970949592334     -1.71691649899615     -0.56030351651465
  C           6.37980326907082     -1.38719098433529      0.98373253525101
  H           6.49485364547626     -0.74361469011881      1.87373702953565
  H           6.35017624228820     -2.42968931000568      1.34705821265372
  C           7.57068298433145     -1.19503242395901      0.04387466687421
  H           7.58125974971974     -0.15235176979794     -0.32180322935629
  H           7.43613657261874     -1.83047560077818     -0.84996978813380
  C           8.90800301631263     -1.51866329027678      0.70610635592333
  H           9.74983790677884     -1.36942938015928      0.01055322961939
  H           9.08392456951874     -0.87662269781589      1.58592957348825
  H           8.94066359474961     -2.56643389751612      1.05017495116276
