20
Coordinates from ORCA-job CAS_2516-93-0 E -460.500738987115
  C          -1.23335667467055      0.09054996818775      0.06300092247567
  O          -1.23966196253773      1.32023254750103     -0.18614606981770
  O          -2.23001590718850     -0.63540940455414      0.32262303357419
  C           0.11492001792414     -0.65033982845270      0.06139683630184
  H           0.24031625959653     -1.14387357228051      1.04715031961960
  H           0.06033890280004     -1.46721928059307     -0.68781993539686
  O           1.19615103077062      0.21491602222846     -0.21135118326741
  C           2.45139280546180     -0.43924281528270     -0.20399778915088
  H           2.45965076739686     -1.25950862379248     -0.95194633135912
  H           2.62983156759087     -0.91185361235484      0.78464782129458
  C           3.54495645572879      0.56859647417625     -0.51266482866853
  H           3.49104042043002      1.38611745463578      0.22868496033092
  H           3.33930798999153      1.02416614145445     -1.49810164506385
  C           4.94359208060054     -0.04889499101641     -0.50610504324616
  H           4.97914949372646     -0.87883658718842     -1.23508513439638
  H           5.13579933882772     -0.50443721254293      0.48229956513000
  C           6.04452693715431      0.95954040267592     -0.82666609806291
  H           6.05741173517702      1.78492211946615     -0.09440774582364
  H           7.04106694236495      0.48847339204773     -0.81484608137455
  H           5.89914079885456      1.40709740568470     -1.82474857309881
