9
Coordinates from ORCA-job CAS_127-17-3 E -341.536442358203
  C           0.87033426302444      0.04345153401415      0.04697792064293
  O           1.15290979940462      1.08110167081889      0.69520721171597
  O           1.64091150386430     -0.86656025421884     -0.33414082608359
  C          -0.63764073310412     -0.13418044970622     -0.33480307394359
  O          -0.99944998857555     -1.12038549046901     -0.95516750874922
  C          -1.58663107491912      0.95029945744669      0.08992978813207
  H          -1.54531232266331      1.07579746447480      1.18393886704242
  H          -1.26677716374736      1.91246603948893     -0.34263034499348
  H          -2.61173328328390      0.71405502815061     -0.22817003376352
