!B3LYP D4 DEF2-SVP OPT FREQ MBIS
%PAL
NPROCS 12 
END

%Method
WriteJSONPropertyfile True
End

%cpcm SMD TRUE
SMDSOLVENT "WATER"
end

* xyz -1   1
    C   -1.2712610000        0.0340510000        0.0337890000     
    O   -1.3400590000        1.2657690000       -0.1723510000     
    O   -2.2036980000       -0.7773590000        0.2248070000     
    C    0.1486830000       -0.6109070000        0.0692650000     
    H    0.2993690000       -1.0797890000        1.0462410000     
    H    0.1933080000       -1.4174430000       -0.6688250000     
    C    1.2197070000        0.3164200000       -0.1807530000     
    N    2.0699970000        1.0818380000       -0.3866980000     
*

