17
Coordinates from ORCA-job CAS_99-94-5 E -459.113325982574
  C           2.29856364321822     -0.00246875021391     -0.01232892329888
  O           2.87845175737311      1.11703765054752     -0.00854921967571
  O           2.87146270063984     -1.12560669486197     -0.02318526585040
  C           0.77103117306837      0.00191659937103     -0.00362299047515
  C           0.05286892263167      1.20567683841505      0.00628936286023
  C           0.04604100169511     -1.20060451461391     -0.00426175693906
  C          -1.34420956656594      1.20903398491119      0.01430356133843
  C          -1.34836461838017     -1.19788619608599      0.00405162276586
  C          -2.07116676413623      0.00833421082530      0.01218064494835
  H           0.60414928540843      2.14809343311941      0.00878819443411
  H          -1.88378059650477      2.16080244901173      0.02334720442010
  H           0.59413507967632     -2.14487157557335     -0.01015105576425
  H          -1.89237795370994     -2.14754966781447      0.00456309526119
  C          -3.57708074017619      0.00151276161053      0.00657789563192
  H          -3.98709324918930      1.01247961329789      0.14958291281475
  H          -3.96946133666308     -0.38817247088433     -0.94885475462292
  H          -3.97893673838545     -0.64849567106172      0.80135447215144
