--Link1--
%chk=CAS_1077-07-2.chk
# opt nosymm freq M06L/6-311G(d,p) SCRF=(SMD,solvent=water) pop=nbo IOP(6/80=1)

CAS_1077-07-2

-1   1
    C   -0.9288670000        0.3730930000       -0.1704540000     
    O   -1.3750730000        0.1976700000       -1.3363550000     
    O   -1.3903750000        1.1823630000        0.6795820000     
    C    0.2696110000       -0.4613250000        0.2461830000     
    C    0.8225490000       -1.4035640000       -0.6228020000     
    C    0.8412430000       -0.3018390000        1.5108970000     
    C    1.9235290000       -2.1600700000       -0.2343870000     
    C    1.9417780000       -1.0531380000        1.9184860000     
    C    2.4842260000       -1.9826050000        1.0260930000     
    H    0.3790120000       -1.5363100000       -1.6041090000     
    H    0.4064980000        0.4265470000        2.1899380000     
    H    2.3481030000       -2.8917100000       -0.9153030000     
    H    3.3484530000       -2.5697740000        1.3276840000     
    C    2.5643710000       -0.8466760000        3.2780220000     
    H    1.8406250000       -0.3346560000        3.9230410000     
    H    2.7866580000       -1.8131250000        3.7431450000     
    C    3.8217740000       -0.0367240000        3.1986910000     
    H    3.7111600000        0.9687250000        2.7906110000     
    C    5.0260000000       -0.4672370000        3.5646430000     
    H    5.1712940000       -1.4659810000        3.9701930000     
    H    5.9082260000        0.1593810000        3.4789940000     


