!B3LYP D4 DEF2-SVP OPT FREQ MBIS
%PAL
NPROCS 12 
END

%Method
WriteJSONPropertyfile True
End

%cpcm SMD TRUE
SMDSOLVENT "WATER"
end

* xyz -1   1
    C   -1.1822540000        0.5124920000        0.0305570000     
    O   -1.7238420000        0.4369620000       -1.1046590000     
    O   -1.5396200000        1.2733430000        0.9697430000     
    C    0.0097380000       -0.3946120000        0.2951660000     
    C    0.4505600000       -1.2788870000       -0.6836220000     
    C    0.6784190000       -0.3569710000        1.5248600000     
    C    1.5395560000       -2.1207750000       -0.4498930000     
    C    1.7617170000       -1.1920300000        1.7544320000     
    C    2.2049610000       -2.0816340000        0.7762600000     
    H   -0.0551660000       -1.3264220000       -1.6422700000     
    H    0.3371970000        0.3307990000        2.2901930000     
    H    2.2803830000       -1.1593320000        2.7080340000     
    H    3.0520550000       -2.7270110000        0.9741330000     
    O    1.8825860000       -2.9500960000       -1.4832060000     
    C    2.9469420000       -3.8637040000       -1.2501360000     
    H    3.0454870000       -4.4510360000       -2.1614230000     
    H    3.8892960000       -3.3416500000       -1.0543070000     
    H    2.7224610000       -4.5316550000       -0.4122670000     
*

