!B3LYP D4 DEF2-SVP OPT FREQ MBIS
%PAL
NPROCS 12 
END

%Method
WriteJSONPropertyfile True
End

%cpcm SMD TRUE
SMDSOLVENT "WATER"
end

* xyz -1   1
    C   -2.5515270000       -0.5934040000       -0.0001540000     
    O   -2.4961900000       -1.8494840000        0.0000490000     
    O   -3.5922460000        0.1133690000        0.0002360000     
    C   -1.2231720000        0.1495050000       -0.0000700000     
    C   -0.0233510000       -0.5548680000       -0.0000540000     
    C   -1.1838970000        1.5460870000       -0.0000070000     
    C    1.1737240000        0.1482370000        0.0000220000     
    C    0.0244890000        2.2361060000        0.0000800000     
    C    1.2229860000        1.5388470000        0.0000920000     
    H    0.0352550000        3.3203930000        0.0001340000     
    H   -2.1245060000        2.0864710000       -0.0000280000     
    H    2.1770020000        2.0495210000        0.0001570000     
    H   -0.0302590000       -1.6376720000       -0.0000960000     
    N    2.4344420000       -0.5986400000        0.0000340000     
    O    2.3859720000       -1.8256340000       -0.0000420000     
    O    3.4865350000        0.0356250000        0.0001290000     
*

