!B3LYP D4 DEF2-SVP OPT FREQ MBIS
%PAL
NPROCS 12 
END

%Method
WriteJSONPropertyfile True
End

%cpcm SMD TRUE
SMDSOLVENT "WATER"
end

* xyz -1   1
    C   -0.6905920000       -0.0363490000        0.0462760000     
    O   -1.6363230000       -0.4090480000        0.7954380000     
    O   -0.8188780000        0.5661140000       -1.0541580000     
    C    0.7263800000       -0.3638660000        0.5296500000     
    H    0.7982850000       -1.4567830000        0.5965220000     
    H    0.8115670000       -0.0145180000        1.5654970000     
    C    1.8497450000        0.1909660000       -0.3201010000     
    H    1.8153350000        1.2832470000       -0.3634160000     
    H    2.8317760000       -0.0921980000        0.0701750000     
    H    1.7846650000       -0.1720260000       -1.3493750000     
*

