!B3LYP D4 DEF2-SVP OPT FREQ MBIS
%PAL
NPROCS 12 
END

%Method
WriteJSONPropertyfile True
End

%cpcm SMD TRUE
SMDSOLVENT "WATER"
end

* xyz -1   1
    C   -0.1846110000        0.0059060000        0.0016710000     
    O   -0.7724940000        1.1214000000       -0.0051370000     
    O   -0.7452630000       -1.1252080000       -0.0172780000     
    C    1.3409170000        0.0066120000        0.0169510000     
    H    1.7586170000        1.0032140000        0.1712170000     
    H    1.7186840000       -0.6634530000        0.7939220000     
    H    1.7170480000       -0.3795900000       -0.9354350000     
*

