8
Coordinates from ORCA-job CAS_372-09-8 E -320.475722166571
  C          -1.27682976067617      0.03137796013583      0.03237757150980
  O          -1.34382535821464      1.27579832723029     -0.08714490888406
  O          -2.21748304255504     -0.78789947722067      0.13413514285662
  C           0.15018979283229     -0.61217513059650      0.07748132186160
  H           0.30173926043270     -1.04882036917149      1.07880647076646
  H           0.19425138643414     -1.44565861493512     -0.64170489310911
  C           1.22692966415516      0.32256144466197     -0.20055735112685
  N           2.08107405759156      1.07739585989569     -0.42791835387449
