!B3LYP D4 DEF2-SVP OPT FREQ MBIS
%PAL
NPROCS 12 
END

%Method
WriteJSONPropertyfile True
End

%cpcm SMD TRUE
SMDSOLVENT "WATER"
end

* xyz -1   1
    C   -1.2744730000        0.0093530000       -0.0113200000     
    O   -1.3815100000        0.8824640000       -0.9183960000     
    O   -2.2045060000       -0.4974660000        0.6598210000     
    C    0.1553120000       -0.4767160000        0.2818730000     
    H    0.1861270000       -1.5470250000        0.0224630000     
    C    0.5191700000       -0.3148320000        1.7433820000     
    H   -0.1658060000       -0.8811790000        2.3775830000     
    H    1.5345050000       -0.6715360000        1.9356870000     
    H    0.4694790000        0.7385130000        2.0361570000     
    O    1.0821390000        0.2286540000       -0.5402770000     
    H    0.4850760000        0.7895310000       -1.0696320000     
*

