9
Coordinates from ORCA-job CAS_625-75-2 E -432.614650478259
  C          -1.17525453563598      0.04163967967289      0.01140423647083
  O          -1.06844523910915      1.24717744565055     -0.29000012043584
  O          -2.20194289496847     -0.62696948558231      0.25419470839882
  C           0.14381865758844     -0.79956864726232      0.10866622329413
  H           0.24628158125209     -1.22199267382868      1.11504523624706
  H           0.13718462426768     -1.58980143629922     -0.65184402228798
  N           1.32492383083518      0.05501738912500     -0.14294028748809
  O           1.68273816859300      0.21384552201542     -1.30266167231716
  O           1.83694180717721      0.62592820650869      0.81124369811824
