14
Coordinates from ORCA-job CAS_65-85-0 E -419.849054569632
  C           1.81543511335586     -0.00000746007413      0.00000095019364
  O           2.39016004388525     -1.12145386205567     -0.00000340582524
  O           2.39016693786384      1.12143547063800     -0.00000466390697
  C           0.28546195920567     -0.00000284156593      0.00002576651606
  C          -0.43034018949772      1.20724070349225      0.00001470025462
  C          -0.43034677682599     -1.20724202402571      0.00002142322658
  C          -1.82767527765743      1.21010837699222     -0.00000664895596
  H           0.12514609962655      2.14697675653710      0.00002331239213
  C          -1.82768220908288     -1.21010237709969     -0.00000183139675
  H           0.12513396553862     -2.14698134004310      0.00003507706068
  C          -2.53074447061618      0.00000451755131     -0.00002154415387
  H          -2.37194827984215      2.15855782836946     -0.00001686517326
  H          -2.37195963451943     -2.15854946380201     -0.00000697510779
  H          -3.62408828143401      0.00000771508590     -0.00004629512387
