!B3LYP D4 DEF2-SVP OPT FREQ MBIS
%PAL
NPROCS 12 
END

%Method
WriteJSONPropertyfile True
End

%cpcm SMD TRUE
SMDSOLVENT "WATER"
end

* xyz -1   1
    C    2.2814070000       -0.0016730000       -0.0110030000     
    O    2.8592740000        1.1193380000       -0.0110740000     
    O    2.8540650000       -1.1254030000       -0.0157190000     
    C    0.7654320000        0.0015820000       -0.0046080000     
    C    0.0479950000        1.1987390000        0.0041510000     
    C    0.0424120000       -1.1950320000       -0.0049530000     
    C   -1.3421280000        1.2016430000        0.0125600000     
    C   -1.3452000000       -1.1938730000        0.0030720000     
    C   -2.0653970000        0.0062790000        0.0114320000     
    H    0.5957410000        2.1361260000        0.0063040000     
    H   -1.8817430000        2.1455470000        0.0218870000     
    H    0.5880520000       -2.1336510000       -0.0100480000     
    H   -1.8872640000       -2.1366060000        0.0040060000     
    C   -3.5614570000        0.0025100000        0.0078600000     
    H   -3.9665280000        1.0052770000        0.1559220000     
    H   -3.9559140000       -0.3757790000       -0.9408630000     
    H   -3.9645150000       -0.6457920000        0.7911590000     
*

