15
Coordinates from ORCA-job CAS_619-65-8 E -511.983979527117
  C          -1.27104686752432      0.01910419921229      0.02221700166545
  O          -1.73664887980602     -0.13686606971795     -1.13633003799006
  O          -1.84414157074631      0.59077454670956      0.98518091349503
  C           0.13035315333255     -0.54252065487705      0.28686313689609
  C           0.84610138642467     -1.17933788097985     -0.73784876651631
  C           0.71420402643787     -0.42721550772780      1.55730979009012
  C           2.11956032838032     -1.69260742045956     -0.50840832259644
  C           1.98608006265464     -0.93451979188033      1.80806852829377
  C           2.69462769949500     -1.57069359943083      0.77095393471884
  H           0.38645266379150     -1.26682898092791     -1.72337372782511
  H           0.15332423927662      0.06820035157750      2.35112717331727
  H           2.67463629430026     -2.18717138943134     -1.30795310122702
  H           2.43832881374788     -0.84391291135748      2.79767701797896
  C           4.00395995096289     -2.09468728429344      1.01792759231044
  N           5.06952769927243     -2.51863760641581      1.21849686738896
