!B3LYP D4 DEF2-SVP OPT FREQ MBIS
%PAL
NPROCS 12 
END

%Method
WriteJSONPropertyfile True
End

%cpcm SMD TRUE
SMDSOLVENT "WATER"
end

* xyz -1   1
    C    1.7325630000        0.0446650000       -0.2149070000     
    O    2.5247250000       -0.6060520000        0.5230830000     
    O    2.0549610000        0.6513820000       -1.2740330000     
    C    0.2482760000        0.0288200000        0.1797600000     
    H    0.2015720000       -0.1883490000        1.2551750000     
    C   -0.4949010000        1.3395710000       -0.1187200000     
    H   -0.0274900000        1.8108720000       -0.9890610000     
    H   -0.3547420000        2.0318000000        0.7200880000     
    C   -1.9917690000        1.1280450000       -0.3742300000     
    H   -2.1656720000        0.9145460000       -1.4371950000     
    H   -2.5496210000        2.0443660000       -0.1575430000     
    C   -2.5144240000       -0.0401220000        0.4505480000     
    H   -3.6046100000       -0.1130650000        0.3916210000     
    H   -2.2796610000        0.1445590000        1.5069850000     
    C   -1.8645970000       -1.3525030000       -0.0079610000     
    H   -2.4791960000       -1.8206590000       -0.7853480000     
    H   -1.8384990000       -2.0625770000        0.8259120000     
    C   -0.4462420000       -1.1292430000       -0.5462160000     
    H    0.1463120000       -2.0457650000       -0.4544070000     
    H   -0.4764500000       -0.8903140000       -1.6176040000     
*

