20
Coordinates from ORCA-job CAS_86-55-5 E -573.301736641173
  C          -2.26733205144504     -0.77440364628681     -0.00669523701846
  O          -3.30202748501740     -0.42581935488064      0.62138151989235
  O          -2.13514454485311     -1.84125139358664     -0.66482855433025
  C          -1.09390436429181      0.21110566961254      0.00895843219996
  C           0.28541891768321     -0.19453299876896     -0.01118945575242
  C          -1.39421895259811      1.56410927289887      0.03623099545732
  C           0.70367950254419     -1.55837960814589      0.00199672983302
  C           1.30773783763502      0.81937103557144     -0.01467310184409
  C          -0.38851464842293      2.55748448438824      0.00969014397435
  H          -2.44356301862170      1.86323582920048      0.07365346052261
  C           2.04124556733725     -1.89696183101405      0.00742408761617
  H          -0.06133981064204     -2.33208498296850     -0.00214137452192
  C           2.67870284669090      0.43469505568188     -0.01265341768688
  C           0.93961286816419      2.19261448732454     -0.01437272576521
  H          -0.67190081491073      3.61326692272869      0.01273665835065
  C           3.04257443513653     -0.89423594520197     -0.00288545365737
  H           2.33309723491753     -2.95053833362457      0.01989366128789
  H           3.43930595060873      1.22041396258581     -0.01552329012519
  H           1.72941400892800      2.94865892053417     -0.02860470617697
  H           4.09822752115730     -1.17774554604866     -0.00018237225555
