11
Coordinates from ORCA-job CAS_50-21-5 E -342.743679098867
  C          -1.27097641569750      0.00835420339333     -0.01464621717055
  O          -1.36032829580545      0.88895601003778     -0.91940631128026
  O          -2.21090939507143     -0.48697354555357      0.64828961667966
  C           0.16962583843058     -0.48148690595306      0.27727619345724
  H           0.19417928864849     -1.56232153179348      0.02618849914322
  C           0.52486142906707     -0.31581150043765      1.75058591939128
  H          -0.17466991435553     -0.88651770025481      2.37952583828116
  H           1.54697005666739     -0.67584396128477      1.95133231329159
  H           0.47072883061991      0.74752813436328      2.03921254600458
  O           1.07106909808132      0.22925706488074     -0.55599724484115
  H           0.44496247941516      0.79462073260221     -1.06502015295677
