7
Coordinates from ORCA-job CAS_64-19-7 E -228.337132296948
  C          -0.19017662987367      0.00554973928968      0.00240413568667
  O          -0.77690717680338      1.12144075917551     -0.00182869610594
  O          -0.75241776661873     -1.12430284032583     -0.02054611389213
  C           1.34756858750554      0.00658629051338      0.01677201776005
  H           1.75929379867998      1.01514605947442      0.17041346516314
  H           1.72294188132780     -0.66909080057815      0.80284639590169
  H           1.72259530578245     -0.38644820754901     -0.94415020451347
