!B3LYP D4 DEF2-SVP OPT FREQ MBIS
%PAL
NPROCS 12 
END

%Method
WriteJSONPropertyfile True
End

%cpcm SMD TRUE
SMDSOLVENT "WATER"
end

*xyz -1   1
    C   -1.2793060000       -0.0087370000        0.0333740000     
    O   -1.7558810000       -0.1531110000       -1.1268370000     
    O   -1.8685370000        0.5437270000        1.0035210000     
    C    0.1143500000       -0.5385360000        0.2811600000     
    C    0.8365150000       -1.1707800000       -0.7360110000     
    C    0.7236750000       -0.4092720000        1.5323150000     
    C    2.1165140000       -1.6577490000       -0.5221600000     
    H    0.3747980000       -1.2773060000       -1.7125410000     
    C    2.0044120000       -0.8889620000        1.7673060000     
    C    2.7055360000       -1.5158450000        0.7358570000     
    H    2.6744730000       -2.1479720000       -1.3134500000     
    H    2.4726760000       -0.7832450000        2.7422970000     
    H    0.1758370000        0.0785980000        2.3321680000     
    O    3.9693030000       -2.0100530000        0.9018760000     
    H    4.2514110000       -1.8421990000        1.8093840000     
*

