16
Coordinates from ORCA-job CAS_121-92-6 E -624.123123745584
  C          -2.56068244413066     -0.60236292185024     -0.00002421230875
  O          -2.50139500231837     -1.85877545553179      0.00000778705060
  O          -3.60618975690331      0.09685305198328     -0.00015614956990
  C          -1.22654084065353      0.15118155626220      0.00003434054591
  C          -0.02201919721071     -0.55690806865139      0.00010258609469
  C          -1.18898631883377      1.55374667618264      0.00002335215638
  C           1.18122712397330      0.14786719702340      0.00016568813937
  C           0.02664720531191      2.24519082591722      0.00008659500728
  C           1.23156363028011      1.54457045965677      0.00015447129026
  H           0.03728966712598      3.33736010439746      0.00008070730587
  H          -2.13418951333933      2.09921873866061     -0.00003604404343
  H           2.19167669234215      2.05905105326193      0.00020396243671
  H          -0.03170407589720     -1.64527735893235      0.00011117118465
  N           2.43929435581363     -0.60338762720396      0.00024101644259
  O           2.38706279820677     -1.82752319015233     -0.00028302965890
  O           3.49220267623304      0.02365395897651     -0.00023024207333
