!B3LYP D4 DEF2-SVP OPT FREQ MBIS
%PAL
NPROCS 12 
END

%Method
WriteJSONPropertyfile True
End

%cpcm SMD TRUE
SMDSOLVENT "WATER"
end

* xyz -1   1
    C   -1.1427020000        0.6392570000        0.3479060000     
    O   -1.3131210000        1.7102780000       -0.2808420000     
    O   -1.9701810000       -0.0240950000        1.0099060000     
    C    1.2785040000        0.7476550000       -0.6077530000     
    H    0.8320920000        0.7912350000       -1.6053730000     
    H    1.3734990000        1.7815740000       -0.2577910000     
    C    0.2988250000        0.0538400000        0.3113730000     
    C    2.6101770000        0.0502190000       -0.6516990000     
    C    3.5535220000        0.3493550000        0.4654810000     
    H    3.8435690000        1.4039250000        0.4227570000     
    H    3.0527940000        0.2077070000        1.4277160000     
    H    4.4436570000       -0.2759570000        0.4118260000     
    O    2.8801690000       -0.7333460000       -1.5491100000     
    O    0.6032590000       -0.9072180000        0.9924510000     
*

