20
Coordinates from ORCA-job CAS_98-89-5 E -423.441135342077
  C           1.74684541652118      0.04960094625475     -0.24846855073636
  O           2.56358532526090     -0.57295688879744      0.48494865504138
  O           2.03802167541864      0.63582539052898     -1.32843654270640
  C           0.26270318011335      0.02467633121020      0.18101040630777
  H           0.25189574404953     -0.19420073389819      1.26198908165935
  C          -0.48860010769739      1.34539691455174     -0.09522874236658
  H          -0.01759737309150      1.83876843375813     -0.95953281761924
  H          -0.35536702680407      2.02150210155064      0.76699772902001
  C          -1.99157516603580      1.14142767609672     -0.37057049064706
  H          -2.15428872969068      0.94606324731589     -1.44564037608960
  H          -2.54843512478808      2.06486674395922     -0.14036538713887
  C          -2.54252233604560     -0.03914635552353      0.43269447359698
  H          -3.63738019990036     -0.11196044887068      0.32465774808683
  H          -2.34969315382714      0.14479614973792      1.50464264282353
  C          -1.87346283559819     -1.36110980024263     -0.00134503000951
  H          -2.47853587967903     -1.84814569899201     -0.78525256522262
  H          -1.85344054785975     -2.06031450215211      0.85179105096899
  C          -0.44205835709079     -1.14497680699184     -0.53183017382636
  H           0.15158529837101     -2.06646817080100     -0.41305554504183
  H          -0.46114480162621     -0.92366752869476     -1.61305856610040
