14
Coordinates from ORCA-job CAS_5699-58-1 E -493.997017605644
  C          -1.15243983374804      0.64938788372573      0.36502500248909
  O          -1.33503435366258      1.69882447778475     -0.29621561543428
  O          -1.96544696471975      0.02004799617448      1.07612310050347
  C           1.27411372271687      0.74721430773766     -0.61920039209120
  H           0.83718908194138      0.76708071338564     -1.63013470811223
  H           1.35815557576193      1.79241790260192     -0.27888994691436
  C           0.28920049478075      0.04375970296943      0.29655628418483
  C           2.61932057328313      0.05472755740173     -0.65045394604540
  C           3.56323531392384      0.35138007780626      0.48087237281171
  H           3.85053084084266      1.41605629033806      0.44306887918927
  H           3.05469680139119      0.19192234945100      1.44541951531880
  H           4.46000131539132     -0.27946823842538      0.41346012694853
  O           2.90468595808509     -0.71640614470539     -1.55349578460136
  O           0.58585447401219     -0.94251587624591      0.94471311175313
