!B3LYP D4 DEF2-SVP OPT FREQ MBIS
%PAL
NPROCS 12 
END

%Method
WriteJSONPropertyfile True
End

%cpcm SMD TRUE
SMDSOLVENT "WATER"
end

* xyz -1   1
    C   -1.2346940000        0.0090660000        0.0124070000     
    O   -1.2433880000        1.2464790000       -0.2403920000     
    O   -2.2257500000       -0.7334680000        0.2051870000     
    C    0.1482660000       -0.6358260000        0.0897060000     
    H    0.2576420000       -1.1149070000        1.0717300000     
    H    0.2031660000       -1.4364380000       -0.6604230000     
    O    1.1766620000        0.3178140000       -0.1185470000     
    H    0.6575540000        1.1313830000       -0.2618180000     
*

