8
Coordinates from ORCA-job CAS_79-10-7 E -266.372331937020
  C          -0.00628266423095      0.61983701513995      0.00010309667313
  O          -0.85042928529664      1.55844636648764     -0.00008155382714
  O           1.24806441025066      0.75030648009324     -0.00003956119562
  C          -0.58203689244320     -0.78630231842153      0.00004339005444
  H          -1.67689522155978     -0.84700493600748      0.00001696183698
  C           0.16250376829907     -1.89697571443080     -0.00000016216745
  H           1.25571466005860     -1.82937320439373      0.00001849891708
  H          -0.28482977507776     -2.89627368846729     -0.00006167029142
