!B3LYP D4 DEF2-SVP OPT FREQ MBIS
%PAL
NPROCS 12 
END

%Method
WriteJSONPropertyfile True
End

%cpcm SMD TRUE
SMDSOLVENT "WATER"
end

* xyz -1   1
    C   -1.2555520000        0.0179260000        0.0241790000     
    O   -1.7072120000       -0.1073080000       -1.1438620000     
    O   -1.8366460000        0.5680090000        0.9954660000     
    C    0.1319380000       -0.5477580000        0.2881270000     
    C    0.8442090000       -1.1859350000       -0.7302300000     
    C    0.7164440000       -0.4328850000        1.5523140000     
    C    2.1110010000       -1.6969890000       -0.5036320000     
    C    1.9822640000       -0.9355320000        1.8015260000     
    C    2.6865990000       -1.5699420000        0.7685970000     
    H    0.3874420000       -1.2749770000       -1.7096790000     
    H    0.1604710000        0.0609020000        2.3414780000     
    H    2.6636290000       -2.1901110000       -1.2954460000     
    H    2.4359930000       -0.8437130000        2.7821240000     
    C    3.9882150000       -2.0815450000        1.0131120000     
    N    5.0565240000       -2.4970620000        1.2178340000     
*

