8
Coordinates from ORCA-job CAS_79-14-1 E -303.476769065065
  C          -1.23250809960869      0.01008029835407      0.01299522909510
  O          -1.22341255264446      1.25090252852882     -0.23269153606493
  O          -2.23367505419830     -0.71921129081585      0.19380893406408
  C           0.16217641892909     -0.64109303804707      0.09102101638424
  H           0.26500495260468     -1.12325150680576      1.08306561949265
  H           0.20803827724184     -1.45267852003422     -0.66190611269742
  O           1.16997454642685      0.32612641926742     -0.12381496457868
  H           0.62385951124898      1.13322810955259     -0.26462818569503
